/*--------------------------------*- C++ -*----------------------------------*\
| =========                 |                                                 |
| \\      /  F ield         | OpenFOAM: The Open Source CFD Toolbox           |
|  \\    /   O peration     | Version:  5                                     |
|   \\  /    A nd           | Web:      www.OpenFOAM.org                      |
|    \\/     M anipulation  |                                                 |
\*---------------------------------------------------------------------------*/
FoamFile
{
    version     2.0;
    format      ascii;
    class       dictionary;
    location    "constant";
    object      physicalProperties;
}
// * * * * * * * * * * * * * * * * * * * * * * * * * * * * * * * * * * * * * //

epsilon0        epsilon0 [-1 -3 4 0 0 2 0] 8.85419e-12;

k               k [-1 0 2 0 0 1 0] 0.00016;
sigma           sigma [-1 -3 3 0 0 2 0] 5.9e7;
Cm              Cm [0 2 -2 -1 1 0 0] 24.7;
den             den [1 -3 0 0 0 0 0] 8.9e3;
M               M [0 0 0 0 1 0 0] 63.55;
kh              kh [1 1 -3 -1 0 0 0] 398;
mu              mu [-1 1 -2 0 0 -3 0] 1.257e-6;
// ************************************************************************* //
