/*--------------------------------*- C++ -*----------------------------------*\
| =========                 |                                                 |
| \\      /  F ield         | OpenFOAM: The Open Source CFD Toolbox           |
|  \\    /   O peration     | Version:  5.x                                   |
|   \\  /    A nd           | Web:      www.OpenFOAM.org                      |
|    \\/     M anipulation  |                                                 |
\*---------------------------------------------------------------------------*/
FoamFile
{
    version     2.0;
    format      binary;
    class       polyBoundaryMesh;
    location    "constant/polyMesh";
    object      boundary;
}
// * * * * * * * * * * * * * * * * * * * * * * * * * * * * * * * * * * * * * //

3
(
    high
    {
        type            patch;
        physicalType    patch;
        nFaces          256;
        startFace       48784;
    }
    low
    {
        type            patch;
        physicalType    patch;
        nFaces          256;
        startFace       49040;
    }
    defaultFaces
    {
        type            patch;
        nFaces          4576;
        startFace       49296;
    }
)

// ************************************************************************* //
